data/cases/case30.m
function mpc = case30
% MATPOWER case format for case30

mpc.version = '2';
mpc.baseMVA = 100.0;

% bus data
% bus_i type Pd Qd Gs Bs area Vm Va baseKV zone Vmax Vmin
mpc.bus = [
	1	3	0.0000	0.0000	0.0000	0.0000	1	1.0000	0.0000	135.0	1	2.0000	0.0000;
	2	2	21.7000	12.7000	0.0000	0.0000	1	1.0000	0.0000	135.0	1	2.0000	0.0000;
	3	1	2.4000	1.2000	0.0000	0.0000	1	1.0000	0.0000	135.0	1	2.0000	0.0000;
	4	1	7.6000	1.6000	0.0000	0.0000	1	1.0000	0.0000	135.0	1	2.0000	0.0000;
	5	1	0.0000	0.0000	0.0000	0.1900	1	1.0000	0.0000	135.0	1	2.0000	0.0000;
	6	1	0.0000	0.0000	0.0000	0.0000	1	1.0000	0.0000	135.0	1	2.0000	0.0000;
	7	1	22.8000	10.9000	0.0000	0.0000	1	1.0000	0.0000	135.0	1	2.0000	0.0000;
	8	1	30.0000	30.0000	0.0000	0.0000	1	1.0000	0.0000	135.0	1	2.0000	0.0000;
	9	1	0.0000	0.0000	0.0000	0.0000	1	1.0000	0.0000	135.0	1	2.0000	0.0000;
	10	1	5.8000	2.0000	0.0000	0.0000	1	1.0000	0.0000	135.0	1	2.0000	0.0000;
	11	1	0.0000	0.0000	0.0000	0.0000	1	1.0000	0.0000	135.0	1	2.0000	0.0000;
	12	1	11.2000	7.5000	0.0000	0.0000	1	1.0000	0.0000	135.0	1	2.0000	0.0000;
	13	2	0.0000	0.0000	0.0000	0.0000	1	1.0000	0.0000	135.0	1	2.0000	0.0000;
	14	1	6.2000	1.6000	0.0000	0.0000	1	1.0000	0.0000	135.0	1	2.0000	0.0000;
	15	1	8.2000	2.5000	0.0000	0.0000	1	1.0000	0.0000	135.0	1	2.0000	0.0000;
	16	1	3.5000	1.8000	0.0000	0.0000	1	1.0000	0.0000	135.0	1	2.0000	0.0000;
	17	1	9.0000	5.8000	0.0000	0.0000	1	1.0000	0.0000	135.0	1	2.0000	0.0000;
	18	1	3.2000	0.9000	0.0000	0.0000	1	1.0000	0.0000	135.0	1	2.0000	0.0000;
	19	1	9.5000	3.4000	0.0000	0.0000	1	1.0000	0.0000	135.0	1	2.0000	0.0000;
	20	1	2.2000	0.7000	0.0000	0.0000	1	1.0000	0.0000	135.0	1	2.0000	0.0000;
	21	1	17.5000	11.2000	0.0000	0.0000	1	1.0000	0.0000	135.0	1	2.0000	0.0000;
	22	2	0.0000	0.0000	0.0000	0.0000	1	1.0000	0.0000	135.0	1	2.0000	0.0000;
	23	2	3.2000	1.6000	0.0000	0.0000	1	1.0000	0.0000	135.0	1	2.0000	0.0000;
	24	1	8.7000	6.7000	0.0000	0.0400	1	1.0000	0.0000	135.0	1	2.0000	0.0000;
	25	1	0.0000	0.0000	0.0000	0.0000	1	1.0000	0.0000	135.0	1	2.0000	0.0000;
	26	1	3.5000	2.3000	0.0000	0.0000	1	1.0000	0.0000	135.0	1	2.0000	0.0000;
	27	2	0.0000	0.0000	0.0000	0.0000	1	1.0000	0.0000	135.0	1	2.0000	0.0000;
	28	1	0.0000	0.0000	0.0000	0.0000	1	1.0000	0.0000	135.0	1	2.0000	0.0000;
	29	1	2.4000	0.9000	0.0000	0.0000	1	1.0000	0.0000	135.0	1	2.0000	0.0000;
	30	1	10.6000	1.9000	0.0000	0.0000	1	1.0000	0.0000	135.0	1	2.0000	0.0000;
];

% generator data
% bus Pg Qg Qmax Qmin Vg mBase status Pmax Pmin
mpc.gen = [
	1	25.9738	-0.9985	0.0000	0.0000	1.0000	100.0	1	1000000000.0000	-1000000000.0000;
	2	60.9700	31.9990	60.0000	-20.0000	1.0000	100.0	1	80.0000	0.0000;
	22	21.5900	39.5700	62.5000	-15.0000	1.0000	100.0	1	50.0000	0.0000;
	27	26.9100	10.5405	48.7000	-15.0000	1.0000	100.0	1	55.0000	0.0000;
	23	19.2000	7.9510	40.0000	-10.0000	1.0000	100.0	1	30.0000	0.0000;
	13	37.0000	11.3529	44.7000	-15.0000	1.0000	100.0	1	40.0000	0.0000;
];

% branch data
% fbus tbus r x b rateA rateB rateC ratio angle status angmin angmax
mpc.branch = [
	1	2	0.020000	0.060000	0.030000	130.0	0.0	0.0	1.0000	0.0000	1	-360.0	360.0;
	1	3	0.050000	0.190000	0.020000	130.0	0.0	0.0	1.0000	0.0000	1	-360.0	360.0;
	2	4	0.060000	0.170000	0.020000	65.0	0.0	0.0	1.0000	0.0000	1	-360.0	360.0;
	3	4	0.010000	0.040000	0.000000	130.0	0.0	0.0	1.0000	0.0000	1	-360.0	360.0;
	2	5	0.050000	0.200000	0.020000	130.0	0.0	0.0	1.0000	0.0000	1	-360.0	360.0;
	2	6	0.060000	0.180000	0.020000	65.0	0.0	0.0	1.0000	0.0000	1	-360.0	360.0;
	4	6	0.010000	0.040000	0.000000	90.0	0.0	0.0	1.0000	0.0000	1	-360.0	360.0;
	5	7	0.050000	0.120000	0.010000	70.0	0.0	0.0	1.0000	0.0000	1	-360.0	360.0;
	6	7	0.030000	0.080000	0.010000	130.0	0.0	0.0	1.0000	0.0000	1	-360.0	360.0;
	6	8	0.010000	0.040000	0.000000	32.0	0.0	0.0	1.0000	0.0000	1	-360.0	360.0;
	6	9	0.000000	0.210000	0.000000	65.0	0.0	0.0	1.0000	0.0000	1	-360.0	360.0;
	6	10	0.000000	0.560000	0.000000	32.0	0.0	0.0	1.0000	0.0000	1	-360.0	360.0;
	9	11	0.000000	0.210000	0.000000	65.0	0.0	0.0	1.0000	0.0000	1	-360.0	360.0;
	9	10	0.000000	0.110000	0.000000	65.0	0.0	0.0	1.0000	0.0000	1	-360.0	360.0;
	4	12	0.000000	0.260000	0.000000	65.0	0.0	0.0	1.0000	0.0000	1	-360.0	360.0;
	12	13	0.000000	0.140000	0.000000	65.0	0.0	0.0	1.0000	0.0000	1	-360.0	360.0;
	12	14	0.120000	0.260000	0.000000	32.0	0.0	0.0	1.0000	0.0000	1	-360.0	360.0;
	12	15	0.070000	0.130000	0.000000	32.0	0.0	0.0	1.0000	0.0000	1	-360.0	360.0;
	12	16	0.090000	0.200000	0.000000	32.0	0.0	0.0	1.0000	0.0000	1	-360.0	360.0;
	14	15	0.220000	0.200000	0.000000	16.0	0.0	0.0	1.0000	0.0000	1	-360.0	360.0;
	16	17	0.080000	0.190000	0.000000	16.0	0.0	0.0	1.0000	0.0000	1	-360.0	360.0;
	15	18	0.110000	0.220000	0.000000	16.0	0.0	0.0	1.0000	0.0000	1	-360.0	360.0;
	18	19	0.060000	0.130000	0.000000	16.0	0.0	0.0	1.0000	0.0000	1	-360.0	360.0;
	19	20	0.030000	0.070000	0.000000	32.0	0.0	0.0	1.0000	0.0000	1	-360.0	360.0;
	10	20	0.090000	0.210000	0.000000	32.0	0.0	0.0	1.0000	0.0000	1	-360.0	360.0;
	10	17	0.030000	0.080000	0.000000	32.0	0.0	0.0	1.0000	0.0000	1	-360.0	360.0;
	10	21	0.030000	0.070000	0.000000	32.0	0.0	0.0	1.0000	0.0000	1	-360.0	360.0;
	10	22	0.070000	0.150000	0.000000	32.0	0.0	0.0	1.0000	0.0000	1	-360.0	360.0;
	21	22	0.010000	0.020000	0.000000	32.0	0.0	0.0	1.0000	0.0000	1	-360.0	360.0;
	15	23	0.100000	0.200000	0.000000	16.0	0.0	0.0	1.0000	0.0000	1	-360.0	360.0;
	22	24	0.120000	0.180000	0.000000	16.0	0.0	0.0	1.0000	0.0000	1	-360.0	360.0;
	23	24	0.130000	0.270000	0.000000	16.0	0.0	0.0	1.0000	0.0000	1	-360.0	360.0;
	24	25	0.190000	0.330000	0.000000	16.0	0.0	0.0	1.0000	0.0000	1	-360.0	360.0;
	25	26	0.250000	0.380000	0.000000	16.0	0.0	0.0	1.0000	0.0000	1	-360.0	360.0;
	25	27	0.110000	0.210000	0.000000	16.0	0.0	0.0	1.0000	0.0000	1	-360.0	360.0;
	28	27	0.000000	0.400000	0.000000	65.0	0.0	0.0	1.0000	0.0000	1	-360.0	360.0;
	27	29	0.220000	0.420000	0.000000	16.0	0.0	0.0	1.0000	0.0000	1	-360.0	360.0;
	27	30	0.320000	0.600000	0.000000	16.0	0.0	0.0	1.0000	0.0000	1	-360.0	360.0;
	29	30	0.240000	0.450000	0.000000	16.0	0.0	0.0	1.0000	0.0000	1	-360.0	360.0;
	8	28	0.060000	0.200000	0.020000	32.0	0.0	0.0	1.0000	0.0000	1	-360.0	360.0;
	6	28	0.020000	0.060000	0.010000	32.0	0.0	0.0	1.0000	0.0000	1	-360.0	360.0;
];
